Circuit: * H:\Mi unidad\#Facultad\4to\Sintesis de redes activas\2023\Laboratorio\Lab 2\Circ 1 Ri=50\Lab_2_Circ_1_Ri=50+ErrorDC.asc

Direct Newton iteration for .op point succeeded.

Date: Sun Jan 05 21:16:17 2025
Total elapsed time: 0.197 seconds.

tnom = 27
temp = 27
method = modified trap
totiter = 2095
traniter = 2082
tranpoints = 1042
accept = 1042
rejected = 0
matrix size = 31
fillins = 38
solver = Normal
Matrix Compiler1: 3.19 KB object code size  0.5/0.2/[0.2]
Matrix Compiler2: off  [0.2]/0.3/0.4

