Circuit: * H:\Mi unidad\#Facultad\4to\Sintesis de redes activas\2023\Laboratorio\Lab 2\Circ 1 Ri=50\Lab_2_Circ_1_Ri=50+Barrido Distorsion.asc

Direct Newton iteration for .op point succeeded.
.step amp=0.3
.step amp=0.31
.step amp=0.32
.step amp=0.33
.step amp=0.34
.step amp=0.35
.step amp=0.36
.step amp=0.37
.step amp=0.38
.step amp=0.39
.step amp=0.4

Date: Sun Jan 05 21:21:23 2025
Total elapsed time: 1.222 seconds.

tnom = 27
temp = 27
method = modified trap
totiter = 2124
traniter = 2111
tranpoints = 1043
accept = 1043
rejected = 0
matrix size = 35
fillins = 38
solver = Normal
Matrix Compiler1: 3.30 KB object code size  0.5/0.2/[0.2]
Matrix Compiler2: off  [0.2]/0.3/0.3

