Circuit: * H:\Mi unidad\#Facultad\4to\Sintesis de redes activas\2023\Laboratorio\Lab 2\Circ 1 Ri=50\Lab_2_Circ_1_Ri=50+Respuesta en frecuencia.asc

Direct Newton iteration for .op point succeeded.

Date: Sun Jan 05 21:39:15 2025
Total elapsed time: 0.141 seconds.

tnom = 27
temp = 27
method = trap
totiter = 13
traniter = 0
tranpoints = 0
accept = 0
rejected = 0
matrix size = 35
fillins = 37
solver = Normal
Matrix Compiler1:     181 opcodes
Matrix Compiler2: 3.40 KB object code size
