Circuit: * H:\Mi unidad\#Facultad\4to\Sintesis de redes activas\2023\Laboratorio\Lab 2\Circ 1 Ri=50\Lab_2_Circ_1_Ri=50+SlewRate.asc

Direct Newton iteration for .op point succeeded.

Date: Sun Jan 05 21:16:24 2025
Total elapsed time: 0.161 seconds.

tnom = 27
temp = 27
method = modified trap
totiter = 2475
traniter = 2462
tranpoints = 1213
accept = 1189
rejected = 24
matrix size = 35
fillins = 38
solver = Normal
Matrix Compiler1: 3.30 KB object code size  0.6/0.3/[0.2]
Matrix Compiler2: 3.42 KB object code size  0.3/0.3/[0.2]

