Circuit: * H:\Mi unidad\#Facultad\4to\Sintesis de redes activas\2023\Laboratorio\Ejemplos\Maca\Lab 2\circuito1lab2sumador.asc

Direct Newton iteration for .op point succeeded.

Date: Wed Dec 13 19:46:58 2023
Total elapsed time: 0.168 seconds.

tnom = 27
temp = 27
method = modified trap
totiter = 3122
traniter = 3109
tranpoints = 1295
accept = 1184
rejected = 111
matrix size = 35
fillins = 38
solver = Normal
Matrix Compiler1: 3.33 KB object code size  0.5/0.5/[0.3]
Matrix Compiler2: off  [0.2]/0.8/0.5

