Circuit: * H:\Mi unidad\#Facultad\4to\Sintesis de redes activas\2023\Laboratorio\Maca\Lab 1\circuito1lab1.asc

WARNING: Less than two connections to node V2.  This node is used by V_2.
Early termination of direct N-R iteration.
Direct Newton iteration failed to find .op point.  (Use ".option noopiter" to skip.)
Starting Gmin stepping
Gmin = 10
vernier = 0.5
vernier = 0.25
vernier = 0.125
vernier = 0.0625
Gmin = 8.61953
vernier = 0.03125
vernier = 0.015625
vernier = 0.0078125
vernier = 0.00390625
Gmin = 8.47038
vernier = 0.00195313
vernier = 0.000976563
vernier = 0.000488281
Gmin = 0
Gmin stepping succeeded in finding the operating point.


Date: Wed Nov 29 22:19:20 2023
Total elapsed time: 0.353 seconds.

tnom = 27
temp = 27
method = modified trap
totiter = 9701
traniter = 8228
tranpoints = 4115
accept = 2773
rejected = 1342
matrix size = 58
fillins = 227
solver = Normal
Matrix Compiler1: 19.76 KB object code size  3.8/1.7/[0.8]
Matrix Compiler2: 8.55 KB object code size  0.9/1.0/[0.6]

