Circuit: * H:\Mi unidad\#Facultad\4to\Sintesis de redes activas\2023\Laboratorio\Lab 4\Simulación\TP4.asc

WARNING: Less than two connections to node VCC.  This node is used by V2.
WARNING: Less than two connections to node VSS.  This node is used by V3.
WARNING: Less than two connections to node VOUT1.  This node is used by E1.
WARNING: Less than two connections to node VOUT.  This node is used by E:U2:1.
Ignoring empty pin current: Ix(u2:3)
Ignoring empty pin current: Ix(u2:4)

Date: Tue Apr 29 21:18:15 2025
Total elapsed time: 0.950 seconds.

tnom = 27
temp = 27
method = trap
totiter = 0
traniter = 0
tranpoints = 0
accept = 0
rejected = 0
matrix size = 14
fillins = 6
solver = Normal

