Circuit: * D:\Repositorios Git\SRA\Lab 3\Circ 1\Lab_3_Circ_1-4.asc

Early termination of direct N-R iteration.
Direct Newton iteration failed to find .op point.  (Use ".option noopiter" to skip.)
Starting Gmin stepping
Gmin = 10
vernier = 0.5
vernier = 0.25
vernier = 0.125
vernier = 0.0625
Gmin = 8.61953
vernier = 0.03125
vernier = 0.015625
vernier = 0.0078125
vernier = 0.00390625
Gmin = 8.47038
vernier = 0.00195313
vernier = 0.000976563
vernier = 0.000488281
Gmin = 0
Gmin stepping failed

Starting source stepping with srcstepmethod=0
Source Step = 3.0303%
Source Step = 33.3333%
Source Step = 63.6364%
Source Step = 93.9394%
Source stepping succeeded in finding the operating point.


Date: Tue Jun 10 23:15:01 2025
Total elapsed time: 0.183 seconds.

tnom = 27
temp = 27
method = trap
totiter = 1651
traniter = 0
tranpoints = 0
accept = 0
rejected = 0
matrix size = 104
fillins = 521
solver = Normal
Matrix Compiler1:    2172 opcodes
Matrix Compiler2: 17.41 KB object code size  1.1/1.3/[0.5]

