Circuit: * H:\Mi unidad\#Facultad\4to\Sintesis de redes activas\2023\Laboratorio\Lab 3\Circ 1\Lab_3_Circ_1-AO2.asc

Direct Newton iteration for .op point succeeded.

Date: Sun Mar 30 20:19:52 2025
Total elapsed time: 0.169 seconds.

tnom = 27
temp = 27
method = trap
totiter = 13
traniter = 0
tranpoints = 0
accept = 0
rejected = 0
matrix size = 31
fillins = 37
solver = Normal
Matrix Compiler1:     173 opcodes
Matrix Compiler2: 3.17 KB object code size
