Circuit: * C:\Users\Demian\Mi unidad (damiantardon@mi.unc.edu.ar)\#Facultad\4to\Sintesis de redes activas\2023\Laboratorio\Lab 3\Circ 1\Lab_3_Circ_1-3.asc

Direct Newton iteration for .op point succeeded.

Date: Mon Apr 14 21:44:45 2025
Total elapsed time: 0.047 seconds.

tnom = 27
temp = 27
method = trap
totiter = 24
traniter = 0
tranpoints = 0
accept = 0
rejected = 0
matrix size = 54
fillins = 102
solver = Normal
Matrix Compiler1:     453 opcodes
Matrix Compiler2: 6.13 KB object code size
