Circuit: * H:\Mi unidad\#Facultad\4to\Sintesis de redes activas\2023\Laboratorio\Lab 4\Simulación\Dami\TP4.asc

WARNING: Less than two connections to node VOUT1.  This node is used by E1.
Direct Newton iteration for .op point succeeded.

Date: Tue Apr 29 21:41:39 2025
Total elapsed time: 1.138 seconds.

tnom = 27
temp = 27
method = trap
totiter = 14
traniter = 0
tranpoints = 0
accept = 0
rejected = 0
matrix size = 35
fillins = 54
solver = Normal
Matrix Compiler1:     237 opcodes
Matrix Compiler2: 3.72 KB object code size
