Circuit: * H:\Mi unidad\#Facultad\4to\Sintesis de redes activas\2023\Laboratorio\Lab 2\Circ 1\Lab_2_Circ_1_saturacion.asc

Direct Newton iteration for .op point succeeded.
.step vin=0
.step vin=0.05
.step vin=0.1
.step vin=0.15
.step vin=0.2
.step vin=0.25
.step vin=0.3
.step vin=0.35
.step vin=0.4
.step vin=0.45
.step vin=0.5
.step vin=0.55
.step vin=0.6
.step vin=0.65
.step vin=0.7
.step vin=0.75
.step vin=0.8
.step vin=0.85
.step vin=0.9
.step vin=0.95
.step vin=1

Date: Wed Sep 04 17:32:41 2024
Total elapsed time: 2.130 seconds.

tnom = 27
temp = 27
method = modified trap
totiter = 2333
traniter = 2320
tranpoints = 1071
accept = 1053
rejected = 18
matrix size = 35
fillins = 38
solver = Normal
Matrix Compiler1: 3.30 KB object code size  0.7/0.2/[0.2]
Matrix Compiler2: off  [0.2]/0.3/0.3

