Circuit: * H:\Mi unidad\#Facultad\4to\Sintesis de redes activas\2023\Laboratorio\Lab 1\Sim 2\Lab_1_Circ_2.asc

Direct Newton iteration for .op point succeeded.

Date: Wed Dec 20 19:53:01 2023
Total elapsed time: 0.359 seconds.

tnom = 27
temp = 27
method = modified trap
totiter = 2103
traniter = 2090
tranpoints = 1046
accept = 1046
rejected = 0
matrix size = 32
fillins = 52
solver = Normal
Matrix Compiler1: 4.16 KB object code size  0.7/0.4/[0.2]
Matrix Compiler2: 3.52 KB object code size  0.3/0.4/[0.3]

