Circuit: * H:\Mi unidad\#Facultad\4to\Sintesis de redes activas\2023\Laboratorio\Lab 1\Circ 1\Circuito_1.asc

Early termination of direct N-R iteration.
Direct Newton iteration failed to find .op point.  (Use ".option noopiter" to skip.)
Starting Gmin stepping
Gmin = 10
vernier = 0.5
vernier = 0.25
vernier = 0.125
vernier = 0.0625
Gmin = 8.61953
vernier = 0.03125
vernier = 0.015625
vernier = 0.0078125
vernier = 0.00390625
Gmin = 8.47038
vernier = 0.00195313
vernier = 0.000976563
vernier = 0.000488281
Gmin = 0
Gmin stepping succeeded in finding the operating point.


Date: Thu Aug 29 21:14:36 2024
Total elapsed time: 0.983 seconds.

tnom = 27
temp = 27
method = modified trap
totiter = 3577
traniter = 2104
tranpoints = 1053
accept = 1052
rejected = 1
matrix size = 58
fillins = 227
solver = Normal
Matrix Compiler1: 19.78 KB object code size  3.4/1.5/[0.7]
Matrix Compiler2: 8.64 KB object code size  0.8/0.9/[0.4]

