Circuit: * H:\Mi unidad\#Facultad\4to\Sintesis de redes activas\2023\Laboratorio\Lab 2\Circ 2 Ri=100k\Lab_2_Circ_1_Ri=100k+SlewRate.asc

Direct Newton iteration for .op point succeeded.

Date: Mon Jan 06 00:41:44 2025
Total elapsed time: 0.227 seconds.

tnom = 27
temp = 27
method = modified trap
totiter = 2488
traniter = 2475
tranpoints = 1228
accept = 1200
rejected = 28
matrix size = 36
fillins = 47
solver = Normal
Matrix Compiler1: 4.14 KB object code size  0.6/0.4/[0.2]
Matrix Compiler2: off  [0.3]/0.4/0.9

