Circuit: * H:\Mi unidad\#Facultad\4to\Sintesis de redes activas\2023\Laboratorio\Lab 2\Circ 2 Ri=100k\Lab_2_Circ_1_Ri=100k+Respuesta en frecuencia.asc

Direct Newton iteration for .op point succeeded.

Date: Mon Jan 06 01:24:39 2025
Total elapsed time: 0.188 seconds.

tnom = 27
temp = 27
method = trap
totiter = 13
traniter = 0
tranpoints = 0
accept = 0
rejected = 0
matrix size = 36
fillins = 47
solver = Normal
Matrix Compiler1:     228 opcodes
Matrix Compiler2: 3.63 KB object code size
