Circuit: * H:\Mi unidad\#Facultad\4to\Sintesis de redes activas\2023\Laboratorio\Lab 3\General\Respuesta en frecuencia LM324.asc

Direct Newton iteration for .op point succeeded.

Date: Sat Mar 29 20:57:38 2025
Total elapsed time: 0.149 seconds.

tnom = 27
temp = 27
method = trap
totiter = 13
traniter = 0
tranpoints = 0
accept = 0
rejected = 0
matrix size = 30
fillins = 42
solver = Normal
Matrix Compiler1:     195 opcodes
Matrix Compiler2: 3.10 KB object code size
