Circuit: * H:\Mi unidad\#Facultad\4to\Sintesis de redes activas\2023\Laboratorio\Lab 1\Sim 3\Lab_1_Circ_3.asc

Early termination of direct N-R iteration.
Direct Newton iteration failed to find .op point.  (Use ".option noopiter" to skip.)
Starting Gmin stepping
Gmin = 10
vernier = 0.5
vernier = 0.25
vernier = 0.125
vernier = 0.0625
Gmin = 8.61953
vernier = 0.03125
vernier = 0.015625
vernier = 0.0078125
vernier = 0.00390625
Gmin = 8.47038
vernier = 0.00195313
vernier = 0.000976563
vernier = 0.000488281
Gmin = 0
Gmin stepping succeeded in finding the operating point.


Date: Thu Dec 21 01:59:34 2023
Total elapsed time: 0.338 seconds.

tnom = 27
temp = 27
method = modified trap
totiter = 4118
traniter = 2674
tranpoints = 1244
accept = 1174
rejected = 70
matrix size = 59
fillins = 267
solver = Normal
Matrix Compiler1: 24.00 KB object code size  4.3/2.0/[1.2]
Matrix Compiler2: 9.50 KB object code size  2.0/0.7/[0.4]

